*Heading
** Job name: Aniso_horizontal_calibration Model name: Anisotropy_calibration_horizontal
** Generated by: Abaqus/CAE 2016
*Preprint, echo=NO, model=NO, history=NO, contact=NO
**
** PARTS
**
*Part, name=Part-1
*Node
      1,         210.,         300.
      2,         210.,           0.
      3,         470.,           0.
      4,         470.,         300.
      5,         175.,         300.
      6,         175.,         150.
      7,         175.,           0.
      8,         165.,         300.
      9,         165.,         150.
     10,         130.,         300.
     11,         130.,           0.
     12,         165.,           0.
     13,        -130.,         300.
     14,        -130.,           0.
     15,         210.,   292.105255
     16,         210.,   284.210541
     17,         210.,   276.315796
     18,         210.,   268.421051
     19,         210.,   260.526306
     20,         210.,   252.631577
** ... 3311 like lines cut
*Element, type=CPS4R
  1, 544,  63,  64, 763
  2, 475, 474, 501, 527
  3,   2,  52, 863,  51
  4,  52,  53, 535, 863
  5, 533, 579, 534, 535
  6, 522, 572, 570, 514
  7, 460,  49,  50, 459
  8, 461,  48,  49, 460
  9, 534, 502, 460, 459
 10,  47, 462, 477,  46
 11, 503, 461, 460, 502
 12, 537,  58,  59, 538
 13,  44, 478, 464,  43
 14, 478, 463, 523, 504
 15,  43, 464, 479,  42
 16, 515, 526, 481, 480
 17, 481,  39,  40, 480
 18, 495,  61,  62, 496
 19,  38, 466, 482,  37
 20, 467,  36,  37, 482
** ... 3193 like lines cut
*Nset, nset=Set-1, generate
    1,  3331,     1
*Elset, elset=Set-1, generate
    1,  3213,     1
** Section: Section-1
*Solid Section, elset=Set-1, material=Material-1
1.,
*End Part
**  
**
** ASSEMBLY
**
*Assembly, name=Assembly
**  
*Instance, name=Part-1-1, part=Part-1
*End Instance
**  
*Nset, nset=Set-1, instance=Part-1-1
 14,
*Nset, nset=Set-2, instance=Part-1-1
 3,
*Nset, nset=Set-3, instance=Part-1-1
 234, 235
*Elset, elset=Set-4, instance=Part-1-1
    1,    2,    3,    4,    5,    6,    7,    8,    9,   10,   11,   12,   13,   14,   15,   16
   17,   18,   19,   20,   21,   22,   23,   24,   25,   26,   27,   28,   29,   30,   31,   32
   33,   34,   35,   36,   37,   38,   39,   40,   41,   42,   43,   44,   45,   46,   47,   48
   49,   50,   51,   52,   53,   54,   55,   56,   57,   58,   59,   60,   61,   62,   63,   64
   65,   66,   67,   68,   69,   70,   71,   72,   73,   74,   75,   76,   77,   78,   79,   80
   81,   82,   83,   84,   85,   86,   87,   88,   89,   90,   91,   92,   93,   94,   95,   96
   97,   98,   99,  100,  101,  102,  103,  104,  105,  106,  107,  108,  109,  110,  111,  112
  113,  114,  115,  116,  117,  118,  119,  120,  121,  122,  123,  124,  125,  126,  127,  128
  129,  130,  131,  132,  133,  134,  135,  136,  137,  138,  139,  140,  141,  142,  143,  144
  145,  146,  147,  148,  149,  150,  151,  152,  153,  154,  155,  156,  157,  158,  159,  160
  161,  162,  163,  164,  165,  166,  167,  168,  169,  170,  171,  172,  173,  174,  175,  176
  177,  178,  179,  180,  181,  182,  183,  184,  185,  186,  187,  188,  189,  190,  191,  192
  193,  194,  195,  196,  197,  198,  199,  200,  201,  202,  203,  204,  205,  206,  207,  208
  209,  210,  211,  212,  213,  214,  215,  216,  217,  218,  219,  220,  221,  222,  223,  224
  225,  226,  227,  228,  229,  230,  231,  232,  233,  234,  235,  236,  237,  238,  239,  240
  241,  242,  243,  244,  245,  246,  247,  248,  249,  250,  251,  252,  253,  254,  255,  256
  257,  258,  259,  260,  261,  262,  263,  264,  265,  266,  267,  268,  269,  270,  271,  272
  273,  274,  275,  276,  277,  278,  279,  280,  281,  282,  283,  284,  285,  286,  287,  288
  289,  290,  291,  292,  293,  294,  295,  296,  297,  298,  299,  300,  301,  302,  303,  304
  305,  306,  307,  308,  309,  310,  311,  312,  313,  314,  315,  316,  317,  318,  319,  320
** ... 42 like lines cut
*End Assembly
** 
** MATERIALS
** 
*Material, name=Material-1
*Elastic
400000., 0.2
** ----------------------------------------------------------------
** 
** STEP: Step-1
** 
*Step, name=Step-1, nlgeom=NO
*Static
1., 1., 1e-05, 1.
** 
** BOUNDARY CONDITIONS
** 
** Name: BC-1 Type: Displacement/Rotation
*Boundary
Set-1, 1, 1, -0.5
** Name: BC-2 Type: Displacement/Rotation
*Boundary
Set-3, 2, 2
** Name: BC-3 Type: Displacement/Rotation
*Boundary
Set-2, 1, 1, 0.5
** 
** OUTPUT REQUESTS
** 
*Restart, write, frequency=0
** 
** FIELD OUTPUT: F-Output-1
** 
*Output, field, variable=PRESELECT
** 
** HISTORY OUTPUT: H-Output-1
** 
*Output, history, variable=PRESELECT
*End Step
