*Heading
** Job name: iso_calibration_coarse Model name: calibration_coarse
** Generated by: Abaqus/CAE 2018.HF3
*Preprint, echo=NO, model=NO, history=NO, contact=NO
**
** PARTS
**
*Part, name=Three_point_benidng_coarse
*Node
      1,           5.,         300.
      2,           5.,         150.
      3,          -5.,         300.
      4,          -5.,         150.
      5,           5.,         290.
      6,           5.,         280.
      7,           5.,         270.
      8,           5.,         260.
      9,           5.,         250.
     10,           5.,         240.
     11,           5.,         230.
     12,           5.,         220.
     13,           5.,         210.
     14,           5.,         200.
     15,           5.,         190.
     16,           5.,         180.
     17,           5.,         170.
     18,           5.,         160.
     19,          -5.,         290.
     20,          -5.,         280.
** ... 771 like lines cut
*Element, type=CPS4R
 1,  3, 19,  5,  1
 2, 19, 20,  6,  5
 3, 20, 21,  7,  6
 4, 21, 22,  8,  7
 5, 22, 23,  9,  8
 6, 23, 24, 10,  9
 7, 24, 25, 11, 10
 8, 25, 26, 12, 11
 9, 26, 27, 13, 12
10, 27, 28, 14, 13
11, 28, 29, 15, 14
12, 29, 30, 16, 15
13, 30, 31, 17, 16
14, 31, 32, 18, 17
15, 32,  4,  2, 18
 16,   5,   6, 151, 443
 17, 154, 153,  59,  60
 18,  41,  42, 159, 160
 19,  40,  41, 160, 158
 20, 155, 154,  60,  61
** ... 712 like lines cut
*Nset, nset=Set-1, generate
   1,  791,    1
*Elset, elset=Set-1, generate
   1,  732,    1
** Section: Section-1
*Solid Section, elset=Set-1, material=Material-1
,
*End Part
**  
**
** ASSEMBLY
**
*Assembly, name=Assembly
**  
*Instance, name=Three_point_benidng_coarse-1, part=Three_point_benidng_coarse
*End Instance
**  
*Nset, nset=Set-1, instance=Three_point_benidng_coarse-1
  33,  38, 107, 108, 109, 110, 111, 112, 113, 114, 115
*Elset, elset=Set-1, instance=Three_point_benidng_coarse-1
 394, 395, 408, 656, 688, 690, 691, 703, 704, 705
*Nset, nset=Set-2, instance=Three_point_benidng_coarse-1
 35,
*Nset, nset=Set-3, instance=Three_point_benidng_coarse-1
 1, 3
*Nset, nset=Set-4, instance=Three_point_benidng_coarse-1, generate
  1,  32,   1
*Elset, elset=Set-4, instance=Three_point_benidng_coarse-1, generate
  1,  15,   1
*End Assembly
** 
** MATERIALS
** 
*Material, name=Material-1
*Elastic
1.,2.
** ----------------------------------------------------------------
** 
** STEP: Step-1
** 
*Step, name=Step-1, nlgeom=NO
*Static
1., 1., 1e-05, 1.
** 
** BOUNDARY CONDITIONS
** 
** Name: BC-1 Type: Displacement/Rotation
*Boundary
Set-1, 1, 1
Set-1, 2, 2
** Name: BC-2 Type: Displacement/Rotation
*Boundary
Set-2, 1, 1, 1.
** 
** OUTPUT REQUESTS
** 
*Restart, write, frequency=0
** 
** FIELD OUTPUT: F-Output-1
** 
*Output, field, variable=PRESELECT
** 
** HISTORY OUTPUT: H-Output-1
** 
*Output, history, variable=PRESELECT
*End Step
