*Heading
** Job name: iso_calibration_fine Model name: calibration_fine
** Generated by: Abaqus/CAE 2018.HF3
*Preprint, echo=NO, model=NO, history=NO, contact=NO
**
** PARTS
**
*Part, name=Three_point_benidng_fine
*Node
      1,          -5.,          39.
      2,          -5.,          75.
      3,          -5.,         114.
      4,          -5.,         150.
      5,          -5.,         189.
      6,          -5.,         225.
      7,          -5.,         264.
      8,          -5.,           0.
      9,          -5.,         300.
     10,  -270.456787,         300.
     11,    -219.1828,         300.
     12,  -196.985977,         300.
     13,  -158.462097,         300.
     14,  -112.840591,         300.
     15,  -78.5636063,         300.
     16,  -39.3065071,         300.
     17,        -300.,         300.
     18,        -300.,          30.
     19,        -300.,          60.
     20,        -300.,         120.
** ... 4934 like lines cut
*Element, type=CPS4R
   1,   75,   76,  427,  297
   2,  256,  669,   78,   79
   3,  314,  315,  196,  195
   4,  320,  445,  447,  321
   5,  326,  451,  452,  328
   6, 1792, 1016,   37, 1794
   7,  202,   31, 1794, 1798
   8, 1817,   18,   25,   32
   9,   87,   88,  224,  221
  10, 1866, 1361, 1365, 1438
  11, 1453, 1450,   47, 1197
  12, 1625, 1574, 1669, 1624
  13, 1674,   61, 1627,   60
  14,   68, 1803, 1789,   74
  15,   10, 1813, 1809,  167
  16,   17,   24, 1813,   10
  17,  157,  158,  288,  250
  18,  156,  157,  250,  203
  19,  205,  251,  144,  145
  20,  134,  135,  276,  254
** ... 4784 like lines cut
*Nset, nset=Set-1, generate
    1,  4954,     1
*Elset, elset=Set-1, generate
    1,  4804,     1
** Section: Section-1
*Solid Section, elset=Set-1, material=Material-1
,
*End Part
**  
**
** ASSEMBLY
**
*Assembly, name=Assembly
**  
*Instance, name=Three_point_benidng_fine-1, part=Three_point_benidng_fine
*End Instance
**  
*Nset, nset=Set-1, instance=Three_point_benidng_fine-1
  17,  18,  19,  20,  21,  22,  23,  24,  25, 184, 185
*Elset, elset=Set-1, instance=Three_point_benidng_fine-1
    8,   16,   53,   56,   59,   87,   95,  189, 1822, 1826
*Nset, nset=Set-2, instance=Three_point_benidng_fine-1
 2100,
*Nset, nset=Set-3, instance=Three_point_benidng_fine-1
    9, 1959
*Nset, nset=Set-4, instance=Three_point_benidng_fine-1, generate
 3901,  4202,     1
*Elset, elset=Set-4, instance=Three_point_benidng_fine-1, generate
 3739,  3888,     1
*End Assembly
** 
** MATERIALS
** 
*Material, name=Material-1
*Elastic
1.,2.
** ----------------------------------------------------------------
** 
** STEP: Step-1
** 
*Step, name=Step-1, nlgeom=NO
*Static
1., 1., 1e-05, 1.
** 
** BOUNDARY CONDITIONS
** 
** Name: BC-1 Type: Displacement/Rotation
*Boundary
Set-2, 1, 1, 1.
** Name: BC-3 Type: Displacement/Rotation
*Boundary
Set-1, 1, 1
Set-1, 2, 2
** 
** OUTPUT REQUESTS
** 
*Restart, write, frequency=0
** 
** FIELD OUTPUT: F-Output-1
** 
*Output, field, variable=PRESELECT
** 
** HISTORY OUTPUT: H-Output-1
** 
*Output, history, variable=PRESELECT
*End Step
