*Heading
** Job name: KGD Model name: HF_circular
** Generated by: Abaqus/CAE 2016
*Preprint, echo=NO, model=NO, history=NO, contact=NO
**
** PARTS
**
*Part, name=Part-1
*Node
      1,  -6.15999985,  0.764999986
      2,  -6.15999985,  0.545000017
      3,  -5.84000015,  0.545000017
      4,  -5.84000015,  0.764999986
      5,  -5.51999998,           1.
      6,  -5.51999998,  0.545000017
      7,  -5.19999981,  0.545000017
      8,  -5.19999981,  0.764999986
      9,  -4.88000011,  0.545000017
     10,  -4.88000011,  0.764999986
     11,  -4.55999994,  0.545000017
     12,  -4.55999994,  0.764999986
     13,  -4.23999977,           1.
     14,  -4.23999977,  0.545000017
     15,  -3.92000008,  0.545000017
     16,  -3.92000008,  0.764999986
     17,   -3.5999999,  0.545000017
     18,   -3.5999999,  0.764999986
     19,  -4.88000011,           1.
     20,  -6.80000019,          -1.
** ... 5767 like lines cut
*Element, type=CPS4R
1, 1, 2, 3, 4
2, 6, 5, 4, 3
3, 8, 5, 6, 7
4,  8,  7,  9, 10
5, 10,  9, 11, 12
6, 14, 13, 12, 11
7, 16, 13, 14, 15
8, 16, 15, 17, 18
 9, 19,  5,  8, 10
10, 23, 20, 21, 22
11, 24, 25, 26, 20
12, 24, 27, 28, 25
13, 31, 27, 29, 30
14, 32, 33, 34, 35
15, 36, 37, 38, 33
16, 36, 39, 40, 37
17, 41, 39, 23, 22
18, 29, 42, 43, 30
19, 44, 45, 46, 42
20, 47, 48, 49, 50
** ... 5733 like lines cut
*Nset, nset=Set-1, generate
    1,  5787,     1
*Elset, elset=Set-1, generate
    1,  5753,     1
** Section: Section-1
*Solid Section, elset=Set-1, material=Material-1
300.,
*End Part
**  
**
** ASSEMBLY
**
*Assembly, name=Assembly
**  
*Instance, name=Part-1-1, part=Part-1
*End Instance
**  
*Nset, nset=Set-1, instance=Part-1-1
   32,   35,   84,  129,  194,  254,  327,  423,  534,  660,  795,  801,  802,  983,  984, 1187
 1191, 1703, 1707, 2455, 2457, 3462, 3467, 3468, 3471, 3491, 3492, 3504, 3505, 3512, 3513, 3518
 3528, 3529, 3530, 3531, 3532, 3533, 3534, 3535, 3536, 3537, 3538, 3539, 3583, 3584, 3585, 3586
*Elset, elset=Set-1, instance=Part-1-1
   14,   49,   76,  121,  176,  251,  313,  390,  514,  652,  658,  798,  799,  800,  801,  802
  803,  804,  805,  806,  807,  808,  809,  810,  811,  969,  974, 1559, 1563, 2160, 2162, 3198
 3200, 3202, 3215, 3715, 4215, 4715, 5215, 5717, 5718, 5731, 5732, 5742, 5743, 5749, 5750
*Nset, nset=Set-2, instance=Part-1-1
  982,  983,  984,  985, 3525, 3526, 3527, 3540, 3541, 3542, 3559, 3560, 3561, 3562, 3563, 3564
 3565, 3566, 3567, 3568
*Elset, elset=Set-2, instance=Part-1-1
  783,  790,  797,  804,  811,  818,  825,  832, 1214, 1221, 1228, 1235, 1242, 1249, 1256, 1263
 1270, 1277, 1284
*Nset, nset=Set-3, instance=Part-1-1
 3584, 3585, 4291, 4292, 4293, 4294, 4295, 4296, 4297, 4298, 4299, 4300, 4301, 4302, 4303, 4304
 4305, 4306, 4307, 4308, 4309, 4310, 4311, 4790, 4791, 4792, 4793, 4794, 4795, 4796, 4797, 4798
 4799, 4800, 4801, 4802, 4803, 4804, 4805, 4806, 4807, 4808, 4809, 4810
*Elset, elset=_Surf-1_S4, internal, instance=Part-1-1
 4215,
*Surface, type=ELEMENT, name=Surf-1
_Surf-1_S4, S4
*Enrichment, name=Crack-1, type=PROPAGATION CRACK, elset=_PickedSet36, interaction=IntProp-1
*End Assembly
** 
** MATERIALS
** 
*Material, name=Material-1
*Damage Initiation, criterion=MAXPS
 3.6,
*Damage Evolution, type=ENERGY
 0.184,
*Damage Stabilization
1e-05
*Elastic
35700., 0.1
** 
** INTERACTION PROPERTIES
** 
*Surface Interaction, name=IntProp-1
1.,
*Friction
0.,
*Surface Behavior, pressure-overclosure=HARD
** ----------------------------------------------------------------
** 
** STEP: Step-2
** 
*Step, name=Step-2, nlgeom=YES, inc=10000
*Static, riks
1., 1., 1e-05, 1e+10, , 
** 
** BOUNDARY CONDITIONS
** 
** Name: BC-1 Type: Displacement/Rotation
*Boundary
Set-2, 1, 1
Set-2, 2, 2
** Name: BC-2 Type: Displacement/Rotation
*Boundary
Set-1, 1, 1
** 
** CONTROLS
** 
*Controls, reset
*Controls, parameters=time incrementation
, , , , , , , 10, , , 
** 
** OUTPUT REQUESTS
** 
*Restart, write, frequency=0
** 
** FIELD OUTPUT: F-Output-1
** 
*Output, field
*Node Output
RF, U
*Element Output, directions=YES
E, S, STATUSXFEM
** 
** HISTORY OUTPUT: H-Output-1
** 
*Output, history, variable=PRESELECT
*End Step
