*Heading
** Job name: KGD_Cali Model name: HF_plate
** Generated by: Abaqus/CAE 2016
*Preprint, echo=NO, model=NO, history=NO, contact=NO
**
** PARTS
**
*Part, name=Part-2
*Node
      1,           5., 0.0500000007
      2,           5.,          0.5
      3,           0.,          0.5
      4,           0., 0.0500000007
      5,          10.,          0.5
      6,          10.,          10.
      7,           0.,          10.
      8,           5.,         -0.5
      9,           0.,         -0.5
     10,           0.,         -10.
     11,          10.,         -10.
     12,          10.,         -0.5
     13,           5., -0.0500000007
     14,           0., -0.0500000007
     15,          10., 0.0500000007
     16,          10., -0.0500000007
     17,           5., 0.0670017451
     18,           5., 0.0942524597
     19,           5.,  0.137930393
     20,           5.,  0.207938209
** ... 3424 like lines cut
*Element, type=CPS4R
 1,  68, 734, 719,  67
 2, 714,  20,  21, 744
 3, 732, 733,  42,  43
 4,  35,   3,  36, 745
 5, 746, 745,  37,  38
 6, 745, 746,  34,  35
 7, 746, 747,  33,  34
 8,  32,  33, 747,  39
 9,  31,  32,  39,  40
10,  30,  31,  40,  41
11, 732, 730,  28,  29
12, 730, 729,  27,  28
13, 731, 729,  45,  46
14,  26, 731, 748,  25
15, 716, 715, 724,  24
16, 723, 756, 726, 739
17,   4,  37, 745,  36
18, 734,  17,  18, 719
19,  17, 734,  68,   1
20, 720,  65,  66, 750
** ... 3348 like lines cut
*Nset, nset=Set-1, generate
    1,  3444,     1
*Elset, elset=Set-1, generate
    1,  3368,     1
** Section: Section-1
*Solid Section, elset=Set-1, material=Material-1
,
*End Part
**  
**
** ASSEMBLY
**
*Assembly, name=Assembly
**  
*Instance, name=Part-2-1, part=Part-2
*End Instance
**  
*Nset, nset=Set-1, instance=Part-2-1
 10,
*Nset, nset=Set-2, instance=Part-2-1
 7,
*Nset, nset=Set-3, instance=Part-2-1
 15, 16
*Elset, elset=Set-4, instance=Part-2-1
   1,   2,   3,   4,   5,   6,   7,   8,   9,  10,  11,  12,  13,  14,  15,  16
  17,  18,  19,  20,  21,  22,  23,  24,  25,  26,  27,  28,  29,  30,  31,  32
  33,  34,  35,  36,  37,  38,  39,  40,  41,  42,  43,  44,  45,  46,  47,  48
  49,  50,  51,  52,  53,  54,  55,  56,  57,  58,  59,  60,  61,  62,  63,  64
  65,  66,  67,  68,  69,  70,  71,  72,  73,  74,  75,  76,  77,  78,  79,  80
  81,  82,  84,  85,  86,  87,  88,  89,  90,  91,  92,  93,  94,  95,  96,  97
  98,  99, 100, 101, 102, 103, 104, 105, 106, 107, 108, 109, 110, 111, 112, 113
 114, 115, 116, 117, 118, 119, 120, 121, 122, 123, 124, 125, 126, 127, 128, 129
 130, 131, 132, 133, 134, 135, 136, 137, 138, 139, 140, 141, 142, 143, 144, 145
 146, 147, 148, 149, 150, 151, 152, 153, 154, 155, 156, 157, 158, 159, 160, 161
 162, 163, 164, 165, 166, 167, 168, 169, 170, 171, 172, 173, 174, 175, 176, 177
 178, 179, 180, 181, 182, 183, 184, 185, 186, 187, 188, 189, 190, 191, 192, 193
 194, 195, 196, 197, 198, 199, 200, 201, 202, 203, 204, 205, 206, 207, 208, 209
 210, 211, 212, 213, 214, 215, 216, 217, 218, 219, 220, 221, 222, 223, 224, 225
 226, 227, 228, 229, 230, 231, 232, 233, 234, 235, 236, 237, 238, 239, 240, 241
 242, 243, 244, 245, 246, 247, 248, 249, 250, 251, 252, 253, 254, 255, 256, 257
 258, 259, 260, 261, 262, 263, 264, 265, 266, 267, 268, 269, 270, 271, 272, 273
 274, 275, 276, 277, 278, 279, 280, 281, 282, 283, 284, 285, 286, 287, 288, 289
 290, 291, 292, 293, 294, 295, 296, 297, 298, 299, 300, 301, 302, 303, 304, 305
 306, 307, 308, 309, 310, 311, 312, 313, 314, 315, 316, 317, 318, 319, 320, 321
** ... 20 like lines cut
*End Assembly
** 
** MATERIALS
** 
*Material, name=Material-1
*Elastic
 1e+10, 0.2
** ----------------------------------------------------------------
** 
** STEP: Step-1
** 
*Step, name=Step-1, nlgeom=NO
*Static
0.1, 1., 1e-05, 1.
** 
** BOUNDARY CONDITIONS
** 
** Name: BC-1 Type: Displacement/Rotation
*Boundary
Set-1, 2, 2, -0.001
** Name: BC-2 Type: Displacement/Rotation
*Boundary
Set-2, 2, 2, 0.001
** Name: BC-3 Type: Displacement/Rotation
*Boundary
Set-3, 1, 1
** 
** OUTPUT REQUESTS
** 
*Restart, write, frequency=0
** 
** FIELD OUTPUT: F-Output-1
** 
*Output, field, variable=PRESELECT
** 
** HISTORY OUTPUT: H-Output-1
** 
*Output, history, variable=PRESELECT
*End Step
