*Heading
** Job name: multi_stage_test Model name: Model-1
** Generated by: Abaqus/CAE 2018.HF3
*Preprint, echo=NO, model=NO, history=NO, contact=NO
**
** PARTS
**
*Part, name=Part-2
*Node
      1,           0.,         -50.
      2,           5.,         -50.
      3,          10.,         -50.
      4,          15.,         -50.
      5,          20.,         -50.
      6,          25.,         -50.
      7,          30.,         -50.
      8,          35.,         -50.
      9,          40.,         -50.
     10,          45.,         -50.
     11,          50.,         -50.
     12,          55.,         -50.
     13,          60.,         -50.
     14,          65.,         -50.
     15,          70.,         -50.
     16,          75.,         -50.
     17,          80.,         -50.
     18,          85.,         -50.
     19,          90.,         -50.
     20,          95.,         -50.
** ... 841 like lines cut
*Element, type=CPS4R
  1,   1,   2,  43,  42
  2,   2,   3,  44,  43
  3,   3,   4,  45,  44
  4,   4,   5,  46,  45
  5,   5,   6,  47,  46
  6,   6,   7,  48,  47
  7,   7,   8,  49,  48
  8,   8,   9,  50,  49
  9,   9,  10,  51,  50
 10,  10,  11,  52,  51
 11,  11,  12,  53,  52
 12,  12,  13,  54,  53
 13,  13,  14,  55,  54
 14,  14,  15,  56,  55
 15,  15,  16,  57,  56
 16,  16,  17,  58,  57
 17,  17,  18,  59,  58
 18,  18,  19,  60,  59
 19,  19,  20,  61,  60
 20,  20,  21,  62,  61
** ... 780 like lines cut
*Nset, nset=Set-1, generate
   1,  861,    1
*Elset, elset=Set-1, generate
   1,  800,    1
** Section: Section-1
*Solid Section, elset=Set-1, material=Material-1
,
*End Part
**  
**
** ASSEMBLY
**
*Assembly, name=Assembly
**  
*Instance, name=Part-2-1, part=Part-2
*End Instance
**  
*Nset, nset=Set-1, instance=Part-2-1
   1,   2,   3,   4,   5,   6,   7,   8,   9,  10,  11,  12,  13,  14,  15,  16
  17,  18,  19,  20,  21,  22,  23,  24,  25,  26,  27,  28,  29,  30,  31,  32
  33,  34,  35,  36,  37,  38,  39,  40,  41,  82, 123, 164, 205, 246, 287, 328
 369, 410, 451, 492, 533, 574, 615, 656, 697, 738, 779, 820, 821, 822, 823, 824
 825, 826, 827, 828, 829, 830, 831, 832, 833, 834, 835, 836, 837, 838, 839, 840
 841, 842, 843, 844, 845, 846, 847, 848, 849, 850, 851, 852, 853, 854, 855, 856
 857, 858, 859, 860, 861
*Elset, elset=Set-1, instance=Part-2-1
   1,   2,   3,   4,   5,   6,   7,   8,   9,  10,  11,  12,  13,  14,  15,  16
  17,  18,  19,  20,  21,  22,  23,  24,  25,  26,  27,  28,  29,  30,  31,  32
  33,  34,  35,  36,  37,  38,  39,  40,  80, 120, 160, 200, 240, 280, 320, 360
 400, 440, 480, 520, 560, 600, 640, 680, 720, 760, 761, 762, 763, 764, 765, 766
 767, 768, 769, 770, 771, 772, 773, 774, 775, 776, 777, 778, 779, 780, 781, 782
 783, 784, 785, 786, 787, 788, 789, 790, 791, 792, 793, 794, 795, 796, 797, 798
 799, 800
*Nset, nset=Set-2, instance=Part-2-1
   1,   2,   3,   4,   5,   6,   7,   8,   9,  10,  11,  12,  13,  14,  15,  16
  17,  18,  19,  20,  21,  22,  23,  24,  25,  26,  27,  28,  29,  30,  31,  32
  33,  34,  35,  36,  37,  38,  39,  40,  41, 821, 822, 823, 824, 825, 826, 827
 828, 829, 830, 831, 832, 833, 834, 835, 836, 837, 838, 839, 840, 841, 842, 843
 844, 845, 846, 847, 848, 849, 850, 851, 852, 853, 854, 855, 856, 857, 858, 859
 860, 861
*Elset, elset=Set-2, instance=Part-2-1
   1,   2,   3,   4,   5,   6,   7,   8,   9,  10,  11,  12,  13,  14,  15,  16
  17,  18,  19,  20,  21,  22,  23,  24,  25,  26,  27,  28,  29,  30,  31,  32
  33,  34,  35,  36,  37,  38,  39,  40, 761, 762, 763, 764, 765, 766, 767, 768
 769, 770, 771, 772, 773, 774, 775, 776, 777, 778, 779, 780, 781, 782, 783, 784
 785, 786, 787, 788, 789, 790, 791, 792, 793, 794, 795, 796, 797, 798, 799, 800
*Nset, nset=Set-3, instance=Part-2-1
   1,  41,  42,  82,  83, 123, 124, 164, 165, 205, 206, 246, 247, 287, 288, 328
 329, 369, 370, 410, 411, 451, 452, 492, 493, 533, 534, 574, 575, 615, 616, 656
 657, 697, 698, 738, 739, 779, 780, 820, 821, 861
*Elset, elset=Set-3, instance=Part-2-1
   1,  40,  41,  80,  81, 120, 121, 160, 161, 200, 201, 240, 241, 280, 281, 320
 321, 360, 361, 400, 401, 440, 441, 480, 481, 520, 521, 560, 561, 600, 601, 640
 641, 680, 681, 720, 721, 760, 761, 800
*Elset, elset=_Surf-1_S4, internal, instance=Part-2-1
 561,
*Surface, type=ELEMENT, name=Surf-1
_Surf-1_S4, S4
*Elset, elset=_Surf-2_S4, internal, instance=Part-2-1
 201,
*Surface, type=ELEMENT, name=Surf-2
_Surf-2_S4, S4
*End Assembly
** 
** MATERIALS
** 
*Material, name=Material-1
*Elastic
1.,2.
** 
** BOUNDARY CONDITIONS
** 
** Name: BC-1 Type: Displacement/Rotation
*Boundary
Set-2, 2, 2
** Name: BC-2 Type: Displacement/Rotation
*Boundary
Set-3, 1, 1
** ----------------------------------------------------------------
** 
** STEP: Step-1
** 
*Step, name=Step-1, nlgeom=NO
*Static
1., 1., 1e-05, 1.
** 
** OUTPUT REQUESTS
** 
*Restart, write, frequency=0
** 
** FIELD OUTPUT: F-Output-1
** 
*Output, field, variable=PRESELECT
** 
** HISTORY OUTPUT: H-Output-1
** 
*Output, history, variable=PRESELECT
*End Step
