*Heading
** Job name: multi_stage Model name: Model-1
** Generated by: Abaqus/CAE 2018.HF3
*Preprint, echo=NO, model=NO, history=NO, contact=NO
**
** PARTS
**
*Part, name=Part-1
*Node
      1,         500.,         250.
      2,         500.,           5.
      3,        1000.,           5.
      4,        1000.,         250.
      5,           0.,         250.
      6,           0.,           5.
      7,         500.,          -5.
      8,        1000.,          -5.
      9,         500.,        -250.
     10,        1000.,        -250.
     11,           0.,          -5.
     12,           0.,        -250.
     13,         500.,   240.199997
     14,         500.,   230.399994
     15,         500.,   220.600006
     16,         500.,   210.800003
     17,         500.,         201.
     18,         500.,   191.199997
     19,         500.,   181.399994
     20,         500.,   171.600006
** ... 3672 like lines cut
*Element, type=CPS4
  1,   1,  13, 429,  98
  2,  13,  14, 430, 429
  3,  14,  15, 431, 430
  4,  15,  16, 432, 431
  5,  16,  17, 433, 432
  6,  17,  18, 434, 433
  7,  18,  19, 435, 434
  8,  19,  20, 436, 435
  9,  20,  21, 437, 436
 10,  21,  22, 438, 437
 11,  22,  23, 439, 438
 12,  23,  24, 440, 439
 13,  24,  25, 441, 440
 14,  25,  26, 442, 441
 15,  26,  27, 443, 442
 16,  27,  28, 444, 443
 17,  28,  29, 445, 444
 18,  29,  30, 446, 445
 19,  30,  31, 447, 446
 20,  31,  32, 448, 447
** ... 3550 like lines cut
*Nset, nset=Set-1, generate
    1,  3692,     1
*Elset, elset=Set-1, generate
    1,  3570,     1
** Section: Section-1
*Solid Section, elset=Set-1, material=Material-1
,
*End Part
**  
**
** ASSEMBLY
**
*Assembly, name=Assembly
**  
*Instance, name=Part-1-1, part=Part-1
*End Instance
**  
*Nset, nset=Set-1, instance=Part-1-1
   1,   3,   4,   5,   8,   9,  10,  12,  56,  57,  58,  59,  60,  61,  62,  63
  64,  65,  66,  67,  68,  69,  70,  71,  72,  73,  74,  75,  76,  77,  78,  79
  80,  81,  82,  83,  84,  85,  86,  87,  88,  89,  90,  91,  92,  93,  94,  95
  96,  97,  98,  99, 100, 101, 102, 103, 104, 105, 106, 107, 108, 109, 110, 111
 112, 113, 114, 115, 116, 117, 118, 119, 120, 121, 122, 123, 124, 125, 126, 127
 128, 129, 130, 131, 132, 133, 134, 135, 136, 137, 138, 139, 140, 141, 142, 143
 144, 145, 146, 147, 264, 265, 266, 267, 268, 269, 270, 271, 272, 273, 274, 275
 276, 277, 278, 279, 280, 281, 282, 283, 284, 285, 286, 287, 288, 289, 290, 291
 292, 293, 294, 295, 296, 297, 298, 299, 300, 301, 302, 303, 304, 305, 306, 380
 381, 382, 383, 384, 385, 386, 387, 388, 389, 390, 391, 392, 393, 394, 395, 396
 397, 398, 399, 400, 401, 402, 403, 404, 405, 406, 407, 408, 409, 410, 411, 412
 413, 414, 415, 416, 417, 418, 419, 420, 421, 422, 423, 424, 425, 426, 427, 428
*Elset, elset=Set-1, instance=Part-1-1
    1,   26,   51,   76,  101,  126,  151,  176,  201,  226,  251,  276,  301,  326,  351,  376
  401,  426,  451,  476,  477,  478,  479,  480,  481,  482,  483,  484,  485,  486,  487,  488
  489,  490,  491,  492,  493,  494,  495,  496,  497,  498,  499,  500,  525,  550,  575,  600
  625,  650,  675,  700,  725,  750,  775,  800,  825,  850,  875,  900,  925,  950,  975, 1000
 1025, 1050, 1075, 1100, 1125, 1150, 1175, 1200, 1225, 1250, 1275, 1300, 1325, 1350, 1375, 1400
 1425, 1450, 1475, 1500, 1525, 1550, 1575, 1600, 1625, 1650, 1675, 1700, 1725, 1750, 1770, 1771
 1791, 1811, 1831, 1851, 1871, 1891, 1911, 1931, 1951, 1971, 1991, 2011, 2031, 2051, 2071, 2091
 2111, 2131, 2151, 2171, 2191, 2211, 2231, 2251, 2252, 2253, 2254, 2255, 2256, 2257, 2258, 2259
 2260, 2261, 2262, 2263, 2264, 2265, 2266, 2267, 2268, 2269, 2270, 3521, 3522, 3523, 3524, 3525
 3526, 3527, 3528, 3529, 3530, 3531, 3532, 3533, 3534, 3535, 3536, 3537, 3538, 3539, 3540, 3541
 3542, 3543, 3544, 3545, 3546, 3547, 3548, 3549, 3550, 3551, 3552, 3553, 3554, 3555, 3556, 3557
 3558, 3559, 3560, 3561, 3562, 3563, 3564, 3565, 3566, 3567, 3568, 3569, 3570
*Nset, nset=Set-2, instance=Part-1-1
   1,   4,   5,   9,  10,  12,  80,  81,  82,  83,  84,  85,  86,  87,  88,  89
  90,  91,  92,  93,  94,  95,  96,  97,  98,  99, 100, 101, 102, 103, 104, 105
 106, 107, 108, 109, 110, 111, 112, 113, 114, 115, 116, 117, 118, 119, 120, 121
 122, 123, 124, 125, 126, 127, 128, 129, 130, 131, 132, 133, 134, 135, 136, 137
 138, 139, 140, 141, 142, 143, 144, 145, 146, 147, 264, 265, 266, 267, 268, 269
 270, 271, 272, 273, 274, 275, 276, 277, 278, 279, 280, 281, 282, 380, 381, 382
 383, 384, 385, 386, 387, 388, 389, 390, 391, 392, 393, 394, 395, 396, 397, 398
 399, 400, 401, 402, 403, 404, 405, 406, 407, 408, 409, 410, 411, 412, 413, 414
 415, 416, 417, 418, 419, 420, 421, 422, 423, 424, 425, 426, 427, 428
*Elset, elset=Set-2, instance=Part-1-1
    1,   26,   51,   76,  101,  126,  151,  176,  201,  226,  251,  276,  301,  326,  351,  376
  401,  426,  451,  476,  525,  550,  575,  600,  625,  650,  675,  700,  725,  750,  775,  800
  825,  850,  875,  900,  925,  950,  975, 1000, 1025, 1050, 1075, 1100, 1125, 1150, 1175, 1200
 1225, 1250, 1275, 1300, 1325, 1350, 1375, 1400, 1425, 1450, 1475, 1500, 1525, 1550, 1575, 1600
 1625, 1650, 1675, 1700, 1725, 1750, 2251, 2252, 2253, 2254, 2255, 2256, 2257, 2258, 2259, 2260
 2261, 2262, 2263, 2264, 2265, 2266, 2267, 2268, 2269, 2270, 3521, 3522, 3523, 3524, 3525, 3526
 3527, 3528, 3529, 3530, 3531, 3532, 3533, 3534, 3535, 3536, 3537, 3538, 3539, 3540, 3541, 3542
 3543, 3544, 3545, 3546, 3547, 3548, 3549, 3550, 3551, 3552, 3553, 3554, 3555, 3556, 3557, 3558
 3559, 3560, 3561, 3562, 3563, 3564, 3565, 3566, 3567, 3568, 3569, 3570
*Nset, nset=Set-3, instance=Part-1-1
   3,   4,   8,  10,  56,  57,  58,  59,  60,  61,  62,  63,  64,  65,  66,  67
  68,  69,  70,  71,  72,  73,  74,  75,  76,  77,  78,  79, 283, 284, 285, 286
 287, 288, 289, 290, 291, 292, 293, 294, 295, 296, 297, 298, 299, 300, 301, 302
 303, 304, 305, 306
*Elset, elset=Set-3, instance=Part-1-1
  476,  477,  478,  479,  480,  481,  482,  483,  484,  485,  486,  487,  488,  489,  490,  491
  492,  493,  494,  495,  496,  497,  498,  499,  500, 1770, 1771, 1791, 1811, 1831, 1851, 1871
 1891, 1911, 1931, 1951, 1971, 1991, 2011, 2031, 2051, 2071, 2091, 2111, 2131, 2151, 2171, 2191
 2211, 2231, 2251
*Elset, elset=_Surf-1_S4, internal, instance=Part-1-1
 2271,
*Surface, type=ELEMENT, name=Surf-1
_Surf-1_S4, S4
*Elset, elset=_Surf-2_S3, internal, instance=Part-1-1
 1735,
*Surface, type=ELEMENT, name=Surf-2
_Surf-2_S3, S3
*Elset, elset=_Surf-3_S2, internal, instance=Part-1-1
 2820,
*Surface, type=ELEMENT, name=Surf-3
_Surf-3_S2, S2
*End Assembly
** 
** MATERIALS
** 
*Material, name=Material-1
*Elastic
1.,2.
** 
** BOUNDARY CONDITIONS
** 
** Name: BC-1 Type: Displacement/Rotation
*Boundary
Set-2, 2, 2
** Name: BC-2 Type: Displacement/Rotation
*Boundary
Set-3, 1, 1
** ----------------------------------------------------------------
** 
** STEP: Step-1
** 
*Step, name=Step-1, nlgeom=NO
*Static
1., 1., 1e-05, 1.
** 
** OUTPUT REQUESTS
** 
*Restart, write, frequency=0
** 
** FIELD OUTPUT: F-Output-1
** 
*Output, field, variable=PRESELECT
** 
** HISTORY OUTPUT: H-Output-1
** 
*Output, history, variable=PRESELECT
*End Step
